Lowpass filter (schematic img: https://www.allaboutcircuits.com/uploads/articles/low-pass-filter-circuit.jpg)
v1 2 1 ac 24 sin 
v2 1 0 dc 24 
rload 4 0 1k 
l1 2 3 100m l2 3 4 250m 
c1 3 0 100u 

.ac lin 30 500 15k 
